/*--------------------------------*- C++ -*----------------------------------*\
| =========                 |                                                 |
| \\      /  F ield         | OpenFOAM: The Open Source CFD Toolbox           |
|  \\    /   O peration     | Version:  2.3.0                                 |
|   \\  /    A nd           | Web:      www.OpenFOAM.org                      |
|    \\/     M anipulation  |                                                 |
\*---------------------------------------------------------------------------*/
FoamFile
{
    version     2.0;
    format      ascii;
    class       dictionary;
    object      sampleDict;
}
// * * * * * * * * * * * * * * * * * * * * * * * * * * * * * * * * * * * * //

setFormat                 raw;

interpolationScheme       cellPoint;

fields
    ( 
        alpha.water 
        magU
    );

sets
    (
        verticalLine    //line StSt gerade
        {
            type                uniform;
            axis                z;
            
            // Beckenecke
            //start               (0.85 4.25 1.4);
            //end                 (0.85 4.25 2);
            
            // Schlitz
            start               (0.23 4.35 1.4);
            end                 (0.23 4.35 2);

            nPoints             600;
        }
        /*verticalLine    //line StSt gewendelt
        {
            type                uniform;
            axis                z;
            
            start               (0.15 4.85 1.4);
            end                 (0.15 4.85 2);
            
            nPoints             600;
        }*/
        probes          //points StSt gerade
        {
            type            cloud;
            axis            xyz;
            points          (
                                (0.45 5.6 1.7)      // 0
                                (0.45 4.1 1.5)      // 1
                                (0.45 2.6 1.3)      // 2
                            );

        }
    );


// *********************************************************************** //